Version 4
SHEET 1 4980 1716
WIRE 1920 -416 1920 -432
WIRE 1920 -416 1744 -416
WIRE 2208 -416 1920 -416
WIRE 3328 -416 3328 -432
WIRE 3328 -416 3152 -416
WIRE 3680 -416 3328 -416
WIRE 1920 -400 1920 -416
WIRE 3328 -400 3328 -416
WIRE -1264 -320 -1264 -368
WIRE -1264 -320 -1376 -320
WIRE -1168 -320 -1264 -320
WIRE 2208 -320 2208 -416
WIRE 2208 -320 2112 -320
WIRE 3680 -320 3680 -416
WIRE 3680 -320 3584 -320
WIRE 1920 -304 1920 -320
WIRE 1920 -304 1856 -304
WIRE 2048 -304 1920 -304
WIRE 3328 -304 3328 -320
WIRE 3328 -304 3264 -304
WIRE 3520 -304 3328 -304
WIRE 1920 -288 1920 -304
WIRE 2208 -288 2112 -288
WIRE 3328 -288 3328 -304
WIRE 3680 -288 3584 -288
WIRE -1376 -272 -1376 -320
WIRE -1168 -272 -1168 -320
WIRE 1920 -208 1920 -224
WIRE 2208 -208 2208 -288
WIRE 3328 -208 3328 -224
WIRE 3680 -208 3680 -288
WIRE 1744 -192 1744 -416
WIRE 1744 -192 1520 -192
WIRE 1856 -192 1856 -304
WIRE 3152 -192 3152 -416
WIRE 3152 -192 2800 -192
WIRE 3264 -192 3264 -304
WIRE -1376 -176 -1376 -192
WIRE -1296 -176 -1376 -176
WIRE 1744 -176 1744 -192
WIRE 3152 -176 3152 -192
WIRE -1168 -160 -1168 -192
WIRE -1088 -160 -1168 -160
WIRE -496 -160 -496 -176
WIRE -416 -160 -496 -160
WIRE -16 -160 -16 -240
WIRE 720 -160 720 -240
WIRE -1376 -144 -1376 -176
WIRE -1168 -144 -1168 -160
WIRE -496 -144 -496 -160
WIRE 1920 -128 1920 -144
WIRE 3328 -128 3328 -144
WIRE -224 -112 -288 -112
WIRE -128 -112 -160 -112
WIRE -80 -112 -128 -112
WIRE 416 -112 352 -112
WIRE 512 -112 480 -112
WIRE 608 -112 512 -112
WIRE 656 -112 608 -112
WIRE -1504 -96 -1664 -96
WIRE -1440 -96 -1504 -96
WIRE -1040 -96 -1104 -96
WIRE -864 -96 -1040 -96
WIRE -752 -96 -768 -96
WIRE -640 -96 -688 -96
WIRE -560 -96 -640 -96
WIRE -128 -96 -128 -112
WIRE 512 -96 512 -112
WIRE 608 -96 608 -112
WIRE 1520 -80 1520 -192
WIRE 2800 -80 2800 -192
WIRE -1664 -64 -1664 -96
WIRE -864 -64 -864 -96
WIRE 2208 -64 2208 -128
WIRE 2208 -64 2112 -64
WIRE 2336 -64 2208 -64
WIRE 3680 -64 3680 -128
WIRE 3680 -64 3584 -64
WIRE 3728 -64 3680 -64
WIRE -16 -48 -16 -64
WIRE 48 -48 -16 -48
WIRE 160 -48 112 -48
WIRE 224 -48 160 -48
WIRE 720 -48 720 -64
WIRE 864 -48 720 -48
WIRE 960 -48 928 -48
WIRE 1008 -48 960 -48
WIRE 1856 -48 1856 -128
WIRE 1920 -48 1920 -64
WIRE 1920 -48 1856 -48
WIRE 2048 -48 1920 -48
WIRE 3264 -48 3264 -128
WIRE 3328 -48 3328 -64
WIRE 3328 -48 3264 -48
WIRE 3520 -48 3328 -48
WIRE 1920 -32 1920 -48
WIRE 2208 -32 2112 -32
WIRE 2336 -32 2336 -64
WIRE 3328 -32 3328 -48
WIRE 3680 -32 3584 -32
WIRE 3728 -32 3728 -64
WIRE -496 -16 -496 -48
WIRE 608 -16 608 -32
WIRE 720 -16 720 -48
WIRE 720 -16 608 -16
WIRE -16 0 -16 -48
WIRE 720 0 720 -16
WIRE -128 16 -128 -16
WIRE 1520 16 1520 0
WIRE 1552 16 1520 16
WIRE 1744 16 1744 -96
WIRE 1744 16 1616 16
WIRE 1856 16 1744 16
WIRE 2800 16 2800 0
WIRE 2832 16 2800 16
WIRE 3152 16 3152 -96
WIRE 3152 16 2896 16
WIRE 3264 16 3152 16
WIRE -1264 32 -1376 32
WIRE -1168 32 -1264 32
WIRE 1520 32 1520 16
WIRE 2800 32 2800 16
WIRE 2336 64 2336 48
WIRE 3728 64 3728 48
WIRE -1840 80 -1840 48
WIRE -1840 80 -1920 80
WIRE -704 80 -800 80
WIRE 1360 80 1200 80
WIRE 1456 80 1360 80
WIRE 2640 80 2480 80
WIRE 2736 80 2640 80
WIRE -1840 96 -1840 80
WIRE -1472 96 -1568 96
WIRE -704 96 -704 80
WIRE 1360 96 1360 80
WIRE 2640 96 2640 80
WIRE -1472 112 -1472 96
WIRE 2208 112 2208 -32
WIRE 3680 112 3680 -32
WIRE -800 128 -800 80
WIRE -16 128 -16 80
WIRE 720 128 720 80
WIRE 720 128 -16 128
WIRE 896 128 720 128
WIRE 1744 128 1744 16
WIRE 1920 128 1920 64
WIRE 3152 128 3152 16
WIRE 3328 128 3328 64
WIRE -1568 144 -1568 96
WIRE 1520 144 1520 128
WIRE 1616 144 1584 144
WIRE 2800 144 2800 128
WIRE 2832 144 2800 144
WIRE 2976 144 2896 144
WIRE -496 160 -496 64
WIRE 1520 160 1520 144
WIRE 2800 160 2800 144
WIRE -1264 176 -1264 32
WIRE 688 176 592 176
WIRE 688 192 688 176
WIRE 1360 192 1360 176
WIRE 2640 192 2640 176
WIRE -704 208 -704 176
WIRE -560 208 -704 208
WIRE -1472 224 -1472 192
WIRE -1328 224 -1472 224
WIRE 592 224 592 176
WIRE 1744 224 1744 208
WIRE 1920 224 1920 208
WIRE 1920 224 1744 224
WIRE 2208 224 2208 192
WIRE 2208 224 1920 224
WIRE 3152 224 3152 208
WIRE 3328 224 3328 208
WIRE 3328 224 3152 224
WIRE 3680 224 3680 192
WIRE 3680 224 3328 224
WIRE 1920 240 1920 224
WIRE 3328 240 3328 224
WIRE -1792 256 -1840 256
WIRE 896 256 896 128
WIRE -1840 288 -1840 256
WIRE -496 304 -496 256
WIRE -496 304 -592 304
WIRE 688 304 688 272
WIRE 832 304 688 304
WIRE -1264 320 -1264 272
WIRE -1264 320 -1360 320
WIRE -704 336 -704 208
WIRE -496 336 -496 304
WIRE -1472 352 -1472 224
WIRE -1264 352 -1264 320
WIRE 2800 368 2800 240
WIRE 2864 368 2800 368
WIRE 3008 368 2928 368
WIRE -592 384 -592 304
WIRE -592 384 -640 384
WIRE -560 384 -592 384
WIRE 1520 384 1520 240
WIRE 1536 384 1520 384
WIRE 1616 384 1600 384
WIRE -1840 400 -1840 368
WIRE -1840 400 -1920 400
WIRE -1360 400 -1360 320
WIRE -1360 400 -1408 400
WIRE -1328 400 -1360 400
WIRE 896 400 896 352
WIRE 896 400 800 400
WIRE 2592 400 2496 400
WIRE 2592 416 2592 400
WIRE -1840 432 -1840 400
WIRE 688 432 688 304
WIRE 896 432 896 400
WIRE 1312 432 1216 432
WIRE 1312 448 1312 432
WIRE 2496 448 2496 400
WIRE -704 480 -704 432
WIRE -592 480 -704 480
WIRE -496 480 -496 432
WIRE -496 480 -592 480
WIRE 800 480 800 400
WIRE 800 480 752 480
WIRE 832 480 800 480
WIRE 1216 480 1216 432
WIRE 2800 480 2800 368
WIRE -1472 496 -1472 448
WIRE -1360 496 -1472 496
WIRE -1264 496 -1264 448
WIRE -1264 496 -1360 496
WIRE -496 496 -496 480
WIRE 1520 512 1520 384
WIRE 2592 528 2592 496
WIRE 2736 528 2592 528
WIRE -592 544 -592 480
WIRE -1840 560 -1840 512
WIRE -1792 560 -1840 560
WIRE -1360 560 -1360 496
WIRE 1312 560 1312 528
WIRE 1456 560 1312 560
WIRE 688 576 688 528
WIRE 800 576 688 576
WIRE 896 576 896 528
WIRE 896 576 800 576
WIRE 896 592 896 576
WIRE 2592 608 2592 528
WIRE 2704 608 2592 608
WIRE 800 640 800 576
WIRE 1520 656 1520 608
WIRE 1520 656 1424 656
WIRE 2592 656 2592 608
WIRE 2800 656 2800 576
WIRE 1312 688 1312 560
WIRE 1520 688 1520 656
WIRE 2704 704 2704 608
WIRE 2704 704 2656 704
WIRE 2736 704 2704 704
WIRE 1424 736 1424 656
WIRE 1424 736 1376 736
WIRE 1456 736 1424 736
WIRE 2592 800 2592 752
WIRE 2704 800 2592 800
WIRE 2800 800 2800 752
WIRE 2800 800 2704 800
WIRE 1312 832 1312 784
WIRE 1424 832 1312 832
WIRE 1520 832 1520 784
WIRE 1520 832 1424 832
WIRE 1520 848 1520 832
WIRE 2704 864 2704 800
WIRE 1424 896 1424 832
FLAG -16 -240 v+
FLAG -128 16 0
FLAG -288 -112 vin1
FLAG 224 -48 vo2
FLAG -1504 -96 VB
FLAG -1264 32 VE
FLAG -1840 176 v-
FLAG -1568 144 v+
FLAG -1840 -32 v+
FLAG -1504 -16 0
FLAG -1040 -16 0
FLAG -1264 -368 v+
FLAG -1920 80 0
FLAG -1792 256 vin
FLAG -1664 -64 vin
FLAG -864 -64 -vin
FLAG -1792 560 -vin
FLAG -1920 400 0
FLAG -1088 -160 vin1
FLAG 720 -240 v+
FLAG 512 -16 0
FLAG 352 -112 -vin1
FLAG 1008 -48 vo3
FLAG -1360 560 v-
FLAG 2336 64 0
FLAG 1920 -432 v+
FLAG 1920 240 v-
FLAG 2336 -64 vooooo1
FLAG 1360 192 0
FLAG 1216 480 v+
FLAG 1424 896 v-
FLAG 1616 464 0
FLAG 3728 64 0
FLAG 3328 -432 v+
FLAG 3328 240 v-
FLAG 2480 80 vo3
FLAG 3728 -64 vooooo2
FLAG 2640 192 0
FLAG 2496 448 v+
FLAG 2704 864 v-
FLAG 3008 448 0
FLAG 592 224 v+
FLAG 800 640 v-
FLAG 160 32 0
FLAG 960 32 0
FLAG 1200 80 vo2
FLAG 2976 224 0
FLAG 1616 224 0
FLAG -1296 -176 -vin1
FLAG -496 -256 v+
FLAG -800 128 v+
FLAG -592 544 v-
FLAG -416 -160 vin2
FLAG -640 -16 0
FLAG -768 -96 -vin1
SYMBOL npn -80 -160 R0
SYMATTR InstName Q4
SYMATTR Value 2N3904
SYMBOL res -32 -16 R0
SYMATTR InstName R2
SYMATTR Value 1k
SYMBOL res -144 -112 R0
SYMATTR InstName R3
SYMATTR Value 390k
SYMBOL cap 112 -64 R90
WINDOW 0 0 32 VBottom 2
WINDOW 3 32 32 VTop 2
SYMATTR InstName C2
SYMATTR Value .69µ
SYMBOL npn -1408 352 M0
SYMATTR InstName Q5
SYMATTR Value 2N3904
SYMBOL npn -1328 352 R0
SYMATTR InstName Q6
SYMATTR Value 2N3904
SYMBOL npn -1328 176 R0
SYMATTR InstName Q7
SYMATTR Value 2N3904
SYMBOL res -1488 96 R0
SYMATTR InstName R4
SYMATTR Value 5.6K
SYMBOL npn -1440 -144 R0
SYMATTR InstName Q8
SYMATTR Value 2N3904
SYMBOL npn -1104 -144 M0
SYMATTR InstName Q9
SYMATTR Value 2N3904
SYMBOL res -1520 -112 R0
SYMATTR InstName R5
SYMATTR Value 390k
SYMBOL res -1056 -112 R0
SYMATTR InstName R6
SYMATTR Value 390K
SYMBOL res -1184 -288 R0
SYMATTR InstName R7
SYMATTR Value 1.1k
SYMBOL voltage -1840 -48 R0
WINDOW 123 0 0 Left 2
WINDOW 39 0 0 Left 2
SYMATTR InstName V4
SYMATTR Value 12
SYMBOL voltage -1840 80 R0
WINDOW 123 0 0 Left 2
WINDOW 39 0 0 Left 2
SYMATTR InstName V5
SYMATTR Value 12
SYMBOL res -1392 -64 R0
SYMATTR InstName R9
SYMATTR Value 1K
SYMBOL res -1184 -64 R0
SYMATTR InstName R10
SYMATTR Value 1K
SYMBOL voltage -1840 272 M0
WINDOW 123 24 124 Left 2
WINDOW 39 0 0 Left 2
SYMATTR Value2 AC 1.2
SYMATTR InstName V6
SYMATTR Value SINE(0 1 50)
SYMBOL voltage -1840 528 M180
WINDOW 123 24 68 Left 2
WINDOW 39 0 0 Left 2
SYMATTR Value2 AC -1.2
SYMATTR InstName V7
SYMATTR Value SINE(0 -1 50)
SYMBOL cap -160 -128 R90
WINDOW 0 0 32 VBottom 2
WINDOW 3 32 32 VTop 2
SYMATTR InstName C1
SYMATTR Value 100µ
SYMBOL npn 656 -160 R0
SYMATTR InstName Q10
SYMATTR Value 2N3904
SYMBOL res 704 -16 R0
SYMATTR InstName R11
SYMATTR Value 1k
SYMBOL res 496 -112 R0
SYMATTR InstName R12
SYMATTR Value 390k
SYMBOL cap 480 -128 R90
WINDOW 0 0 32 VBottom 2
WINDOW 3 32 32 VTop 2
SYMATTR InstName C4
SYMATTR Value 100µ
SYMBOL cap 592 -96 R0
SYMATTR InstName C5
SYMATTR Value 22µ
SYMBOL npn 1456 32 R0
SYMATTR InstName Q11
SYMATTR Value 2N3904
SYMBOL res 1376 192 R180
WINDOW 0 36 76 Left 2
WINDOW 3 36 40 Left 2
SYMATTR InstName R15
SYMATTR Value 390k
SYMBOL res 1536 16 R180
WINDOW 0 36 76 Left 2
WINDOW 3 36 40 Left 2
SYMATTR InstName R16
SYMATTR Value 5k
SYMBOL res 1536 256 R180
WINDOW 0 36 76 Left 2
WINDOW 3 36 40 Left 2
SYMATTR InstName R17
SYMATTR Value 5k
SYMBOL res 1936 224 R180
WINDOW 0 36 76 Left 2
WINDOW 3 36 40 Left 2
SYMATTR InstName R20
SYMATTR Value 240
SYMBOL res 1936 -304 R180
WINDOW 0 36 76 Left 2
WINDOW 3 36 40 Left 2
SYMATTR InstName R21
SYMATTR Value 1k
SYMBOL res 2224 -112 R180
WINDOW 0 36 76 Left 2
WINDOW 3 36 40 Left 2
SYMATTR InstName R22
SYMATTR Value 1
SYMBOL res 2352 64 R180
WINDOW 0 -43 97 Left 2
WINDOW 3 -22 56 Left 2
SYMATTR InstName R23
SYMATTR Value 8
SYMBOL res 2224 208 R180
WINDOW 0 36 76 Left 2
WINDOW 3 36 40 Left 2
SYMATTR InstName R24
SYMATTR Value 1
SYMBOL cap 1616 0 R90
WINDOW 0 0 32 VBottom 2
WINDOW 3 32 32 VTop 2
SYMATTR InstName C7
SYMATTR Value 100µ
SYMBOL cap 1872 -128 R180
WINDOW 0 24 56 Left 2
WINDOW 3 24 8 Left 2
SYMATTR InstName C8
SYMATTR Value 220µ
SYMBOL npn 1856 -32 R0
SYMATTR InstName Q13
SYMATTR Value 2N3904
SYMBOL res 1760 -80 R180
WINDOW 0 36 76 Left 2
WINDOW 3 36 40 Left 2
SYMATTR InstName R28
SYMATTR Value 27k
SYMBOL res 1760 224 R180
WINDOW 0 36 76 Left 2
WINDOW 3 36 40 Left 2
SYMATTR InstName R29
SYMATTR Value 4.7k
SYMBOL diode 1904 -288 R0
WINDOW 3 39 31 Left 2
SYMATTR Value 1N4148
SYMATTR InstName D1
SYMBOL diode 1904 -208 R0
WINDOW 3 40 30 Left 2
SYMATTR Value 1N4148
SYMATTR InstName D2
SYMBOL diode 1904 -128 R0
WINDOW 3 42 35 Left 2
SYMATTR Value 1N4148
SYMATTR InstName D3
SYMBOL npn 1376 688 M0
SYMATTR InstName Q15
SYMATTR Value 2N3904
SYMBOL npn 1456 688 R0
SYMATTR InstName Q16
SYMATTR Value 2N3904
SYMBOL npn 1456 512 R0
SYMATTR InstName Q17
SYMATTR Value 2N3904
SYMBOL res 1296 432 R0
SYMATTR InstName R8
SYMATTR Value 11.3k
SYMBOL res 1600 368 R0
SYMATTR InstName R13
SYMATTR Value 1
SYMBOL cap 1600 368 R90
WINDOW 0 0 32 VBottom 2
WINDOW 3 32 32 VTop 2
SYMATTR InstName C12
SYMATTR Value 100µ
SYMBOL cap 928 -64 R90
WINDOW 0 0 32 VBottom 2
WINDOW 3 32 32 VTop 2
SYMATTR InstName C3
SYMATTR Value 100µ
SYMBOL npn 2736 32 R0
SYMATTR InstName Q12
SYMATTR Value 2N3904
SYMBOL res 2656 192 R180
WINDOW 0 36 76 Left 2
WINDOW 3 36 40 Left 2
SYMATTR InstName R25
SYMATTR Value 100k
SYMBOL res 2816 16 R180
WINDOW 0 36 76 Left 2
WINDOW 3 36 40 Left 2
SYMATTR InstName R26
SYMATTR Value 5k
SYMBOL res 2816 256 R180
WINDOW 0 36 76 Left 2
WINDOW 3 36 40 Left 2
SYMATTR InstName R27
SYMATTR Value 5k
SYMBOL res 3344 224 R180
WINDOW 0 36 76 Left 2
WINDOW 3 36 40 Left 2
SYMATTR InstName R32
SYMATTR Value 240
SYMBOL res 3344 -304 R180
WINDOW 0 36 76 Left 2
WINDOW 3 36 40 Left 2
SYMATTR InstName R33
SYMATTR Value 1k
SYMBOL res 3696 -112 R180
WINDOW 0 36 76 Left 2
WINDOW 3 36 40 Left 2
SYMATTR InstName R34
SYMATTR Value 1
SYMBOL res 3744 64 R180
WINDOW 0 -43 97 Left 2
WINDOW 3 -22 56 Left 2
SYMATTR InstName R35
SYMATTR Value 8
SYMBOL res 3696 208 R180
WINDOW 0 36 76 Left 2
WINDOW 3 36 40 Left 2
SYMATTR InstName R36
SYMATTR Value 1
SYMBOL cap 2896 0 R90
WINDOW 0 0 32 VBottom 2
WINDOW 3 32 32 VTop 2
SYMATTR InstName C6
SYMATTR Value 100µ
SYMBOL cap 3280 -128 R180
WINDOW 0 24 56 Left 2
WINDOW 3 24 8 Left 2
SYMATTR InstName C9
SYMATTR Value 220µ
SYMBOL npn 3264 -32 R0
SYMATTR InstName Q14
SYMATTR Value 2N3904
SYMBOL res 3168 -80 R180
WINDOW 0 36 76 Left 2
WINDOW 3 36 40 Left 2
SYMATTR InstName R37
SYMATTR Value 27k
SYMBOL res 3168 224 R180
WINDOW 0 36 76 Left 2
WINDOW 3 36 40 Left 2
SYMATTR InstName R38
SYMATTR Value 4.7k
SYMBOL diode 3312 -288 R0
WINDOW 3 39 31 Left 2
SYMATTR Value 1N4148
SYMATTR InstName D4
SYMBOL diode 3312 -208 R0
WINDOW 3 40 30 Left 2
SYMATTR Value 1N4148
SYMATTR InstName D5
SYMBOL diode 3312 -128 R0
WINDOW 3 42 35 Left 2
SYMATTR Value 1N4148
SYMATTR InstName D6
SYMBOL npn 2656 656 M0
SYMATTR InstName Q18
SYMATTR Value 2N3904
SYMBOL npn 2736 656 R0
SYMATTR InstName Q19
SYMATTR Value 2N3904
SYMBOL npn 2736 480 R0
SYMATTR InstName Q20
SYMATTR Value 2N3904
SYMBOL res 2576 400 R0
SYMATTR InstName R39
SYMATTR Value 11.3k
SYMBOL res 2992 352 R0
SYMATTR InstName R40
SYMATTR Value 1
SYMBOL cap 2928 352 R90
WINDOW 0 0 32 VBottom 2
WINDOW 3 32 32 VTop 2
SYMATTR InstName C10
SYMATTR Value 100µ
SYMBOL npn 752 432 M0
SYMATTR InstName Q21
SYMATTR Value 2N3904
SYMBOL npn 832 432 R0
SYMATTR InstName Q22
SYMATTR Value 2N3904
SYMBOL npn 832 256 R0
SYMATTR InstName Q23
SYMATTR Value 2N3904
SYMBOL res 672 176 R0
SYMATTR InstName R14
SYMATTR Value 5.6k
SYMBOL res 144 -64 R0
SYMATTR InstName R41
SYMATTR Value 1k
SYMBOL res 944 -64 R0
SYMATTR InstName R42
SYMATTR Value 1k
SYMBOL res -1392 -288 R0
SYMATTR InstName R43
SYMATTR Value 1.1k
SYMBOL AutoGenerated\\tip122 2080 -304 R0
SYMATTR InstName U1
SYMBOL AutoGenerated\\tip122 3552 -304 R0
SYMATTR InstName U2
SYMBOL AutoGenerated\\tip127 2080 -48 R0
SYMATTR InstName U3
SYMBOL AutoGenerated\\tip127 3552 -48 R0
SYMATTR InstName U4
SYMBOL res 2960 128 R0
SYMATTR InstName R44
SYMATTR Value 1.3k
SYMBOL cap 2896 128 R90
WINDOW 0 0 32 VBottom 2
WINDOW 3 32 32 VTop 2
SYMATTR InstName C11
SYMATTR Value 100µ
SYMBOL res 1600 128 R0
SYMATTR InstName R45
SYMATTR Value 2k
SYMBOL cap 1584 128 R90
WINDOW 0 0 32 VBottom 2
WINDOW 3 32 32 VTop 2
SYMATTR InstName C13
SYMATTR Value 100µ
SYMBOL npn -560 -144 R0
WINDOW 0 73 15 Left 2
WINDOW 3 31 45 Left 2
SYMATTR InstName Q1
SYMATTR Value 2N3904
SYMBOL res -480 -160 R180
WINDOW 0 36 76 Left 2
WINDOW 3 36 40 Left 2
SYMATTR InstName R1
SYMATTR Value 3.3k
SYMBOL npn -640 336 M0
SYMATTR InstName Q2
SYMATTR Value 2N3904
SYMBOL npn -560 336 R0
SYMATTR InstName Q3
SYMATTR Value 2N3904
SYMBOL npn -560 160 R0
SYMATTR InstName Q24
SYMATTR Value 2N3904
SYMBOL res -720 80 R0
SYMATTR InstName R18
SYMATTR Value 11.3
SYMBOL res -480 80 R180
WINDOW 0 36 76 Left 2
WINDOW 3 36 40 Left 2
SYMATTR InstName R19
SYMATTR Value 1k
SYMBOL res -656 -112 R0
SYMATTR InstName R30
SYMATTR Value 390k
SYMBOL cap -688 -112 R90
WINDOW 0 0 32 VBottom 2
WINDOW 3 32 32 VTop 2
SYMATTR InstName C14
SYMATTR Value 100µ
TEXT -2016 776 Left 2 !.tran .1
