Version 4
SHEET 1 3876 1076
WIRE 1904 -528 1904 -544
WIRE 1904 -528 1728 -528
WIRE 1904 -512 1904 -528
WIRE 1904 -416 1904 -432
WIRE 1904 -416 1840 -416
WIRE 1904 -400 1904 -416
WIRE -752 -320 -752 -368
WIRE -752 -320 -864 -320
WIRE -656 -320 -752 -320
WIRE 1904 -320 1904 -336
WIRE 1504 -304 1344 -304
WIRE 1728 -304 1728 -528
WIRE 1728 -304 1504 -304
WIRE 1840 -304 1840 -416
WIRE 1344 -288 1344 -304
WIRE 1504 -288 1504 -304
WIRE 1728 -288 1728 -304
WIRE -656 -272 -656 -320
WIRE 1904 -240 1904 -256
WIRE 1344 -192 1344 -208
WIRE 1504 -192 1504 -208
WIRE 1728 -192 1728 -208
WIRE 2304 -192 2304 -208
WIRE 2448 -192 2304 -192
WIRE 2448 -176 2448 -192
WIRE -864 -160 -864 -320
WIRE -656 -160 -656 -192
WIRE -576 -160 -656 -160
WIRE 1840 -160 1840 -240
WIRE 1904 -160 1904 -176
WIRE 1904 -160 1840 -160
WIRE -864 -144 -864 -160
WIRE -656 -144 -656 -160
WIRE 16 -144 16 -224
WIRE 752 -144 752 -224
WIRE 1904 -144 1904 -160
WIRE -992 -96 -1152 -96
WIRE -928 -96 -992 -96
WIRE -528 -96 -592 -96
WIRE -352 -96 -528 -96
WIRE -192 -96 -256 -96
WIRE -96 -96 -128 -96
WIRE -48 -96 -96 -96
WIRE 448 -96 384 -96
WIRE 544 -96 512 -96
WIRE 688 -96 544 -96
WIRE 1504 -96 1504 -112
WIRE 1584 -96 1504 -96
WIRE 1728 -96 1728 -112
WIRE 1728 -96 1648 -96
WIRE 1840 -96 1728 -96
WIRE -96 -80 -96 -96
WIRE 544 -80 544 -96
WIRE 1504 -80 1504 -96
WIRE 1728 -80 1728 -96
WIRE 2448 -80 2448 -96
WIRE -1152 -64 -1152 -96
WIRE -352 -64 -352 -96
WIRE 16 -32 16 -48
WIRE 80 -32 16 -32
WIRE 192 -32 144 -32
WIRE 256 -32 192 -32
WIRE 752 -32 752 -48
WIRE 816 -32 752 -32
WIRE 912 -32 880 -32
WIRE 976 -32 912 -32
WIRE 1040 -32 976 -32
WIRE 1200 -32 1184 -32
WIRE 1344 -32 1344 -112
WIRE 1344 -32 1264 -32
WIRE 1440 -32 1344 -32
WIRE 1344 -16 1344 -32
WIRE 16 16 16 -32
WIRE 752 16 752 -32
WIRE 1728 16 1728 0
WIRE 1904 16 1904 -48
WIRE -752 32 -864 32
WIRE -656 32 -752 32
WIRE -96 32 -96 0
WIRE 1504 48 1504 16
WIRE 1344 80 1344 64
WIRE -960 96 -1056 96
WIRE -960 112 -960 96
WIRE 16 112 16 96
WIRE 496 112 16 112
WIRE 752 112 752 96
WIRE 752 112 496 112
WIRE 1728 112 1728 96
WIRE 1904 112 1904 96
WIRE 1904 112 1728 112
WIRE 2304 112 2304 96
WIRE 2304 112 1904 112
WIRE 1904 128 1904 112
WIRE -1056 144 -1056 96
WIRE -752 176 -752 32
WIRE 1344 176 1344 160
WIRE 1504 176 1504 128
WIRE 288 208 192 208
WIRE -1376 224 -1376 192
WIRE -1376 224 -1456 224
WIRE -960 224 -960 192
WIRE -816 224 -960 224
WIRE 288 224 288 208
WIRE -1376 240 -1376 224
WIRE 192 256 192 208
WIRE 1904 256 1904 240
WIRE 1904 256 1728 256
WIRE 1904 272 1904 256
WIRE 496 288 496 112
WIRE -752 320 -752 272
WIRE -752 320 -848 320
WIRE 288 336 288 304
WIRE 432 336 288 336
WIRE -960 352 -960 224
WIRE -752 352 -752 320
WIRE 1904 368 1904 352
WIRE 1904 368 1840 368
WIRE 1904 384 1904 368
WIRE -1328 400 -1376 400
WIRE -848 400 -848 320
WIRE -848 400 -896 400
WIRE -816 400 -848 400
WIRE -1376 432 -1376 400
WIRE 496 432 496 384
WIRE 496 432 400 432
WIRE 288 464 288 336
WIRE 496 464 496 432
WIRE 1904 464 1904 448
WIRE 1504 480 1344 480
WIRE 1728 480 1728 256
WIRE 1728 480 1504 480
WIRE 1840 480 1840 368
WIRE -960 496 -960 448
WIRE -848 496 -960 496
WIRE -752 496 -752 448
WIRE -752 496 -848 496
WIRE 1344 496 1344 480
WIRE 1504 496 1504 480
WIRE 1728 496 1728 480
WIRE 400 512 400 432
WIRE 400 512 352 512
WIRE 432 512 400 512
WIRE -1376 544 -1376 512
WIRE -1376 544 -1456 544
WIRE 1904 544 1904 528
WIRE -848 560 -848 496
WIRE -1376 576 -1376 544
WIRE 1344 592 1344 576
WIRE 1504 592 1504 576
WIRE 1728 592 1728 576
WIRE 2304 592 2304 576
WIRE 2448 592 2304 592
WIRE 288 608 288 560
WIRE 400 608 288 608
WIRE 496 608 496 560
WIRE 496 608 400 608
WIRE 2448 608 2448 592
WIRE 496 624 496 608
WIRE 1840 624 1840 544
WIRE 1904 624 1904 608
WIRE 1904 624 1840 624
WIRE 1904 640 1904 624
WIRE 400 672 400 608
WIRE 1504 688 1504 672
WIRE 1584 688 1504 688
WIRE 1728 688 1728 672
WIRE 1728 688 1648 688
WIRE 1840 688 1728 688
WIRE -1376 704 -1376 656
WIRE -1328 704 -1376 704
WIRE 1504 704 1504 688
WIRE 1728 704 1728 688
WIRE 2448 704 2448 688
WIRE 1200 752 1184 752
WIRE 1344 752 1344 672
WIRE 1344 752 1264 752
WIRE 1440 752 1344 752
WIRE 1344 768 1344 752
WIRE 1728 800 1728 784
WIRE 1904 800 1904 736
WIRE 1504 832 1504 800
WIRE 1344 864 1344 848
WIRE 1728 896 1728 880
WIRE 1904 896 1904 880
WIRE 1904 896 1728 896
WIRE 2304 896 2304 880
WIRE 2304 896 1904 896
WIRE 1904 912 1904 896
WIRE 1344 960 1344 944
WIRE 1504 960 1504 912
FLAG 192 256 v+
FLAG 16 -224 v+
FLAG -96 32 0
FLAG -256 -96 vin1
FLAG 256 -32 vo2
FLAG -992 -96 VB
FLAG -752 32 VE
FLAG -864 -160 VC
FLAG -1376 320 v-
FLAG -1056 144 v+
FLAG -1376 112 v+
FLAG -992 -16 0
FLAG -528 -16 0
FLAG -752 -368 v+
FLAG -1456 224 0
FLAG -1328 400 vin
FLAG -1152 -64 vin
FLAG -352 -64 -vin
FLAG -1328 704 -vin
FLAG -1456 544 0
FLAG -576 -160 vin1
FLAG 192 48 0
FLAG 752 -224 v+
FLAG 544 0 0
FLAG 384 -96 vin1
FLAG 1040 -32 vo3
FLAG 976 48 0
FLAG -848 560 v-
FLAG 400 672 v-
FLAG 912 32 0
FLAG 1344 176 0
FLAG 1504 176 0
FLAG 2448 -80 0
FLAG 1904 -544 v+
FLAG 1904 128 v-
FLAG 1344 960 0
FLAG 1504 960 0
FLAG 2448 704 0
FLAG 1904 240 v+
FLAG 1904 912 v-
FLAG 1184 -32 vo2
FLAG 1184 752 vo3
SYMBOL npn 352 464 M0
SYMATTR InstName Q1
SYMATTR Value 2N3904
SYMBOL npn 432 464 R0
SYMATTR InstName Q2
SYMATTR Value 2N3904
SYMBOL npn 432 288 R0
SYMATTR InstName Q3
SYMATTR Value 2N3904
SYMBOL res 272 208 R0
SYMATTR InstName R1
SYMATTR Value 5.6K
SYMBOL npn -48 -144 R0
SYMATTR InstName Q4
SYMATTR Value 2N3904
SYMBOL res 0 0 R0
SYMATTR InstName R2
SYMATTR Value 1k
SYMBOL res -112 -96 R0
SYMATTR InstName R3
SYMATTR Value 390k
SYMBOL cap 144 -48 R90
WINDOW 0 0 32 VBottom 2
WINDOW 3 32 32 VTop 2
SYMATTR InstName C2
SYMATTR Value 0.69µ
SYMBOL npn -896 352 M0
SYMATTR InstName Q5
SYMATTR Value 2N3904
SYMBOL npn -816 352 R0
SYMATTR InstName Q6
SYMATTR Value 2N3904
SYMBOL npn -816 176 R0
SYMATTR InstName Q7
SYMATTR Value 2N3904
SYMBOL res -976 96 R0
SYMATTR InstName R4
SYMATTR Value 5.6K
SYMBOL npn -928 -144 R0
SYMATTR InstName Q8
SYMATTR Value 2N3904
SYMBOL npn -592 -144 M0
SYMATTR InstName Q9
SYMATTR Value 2N3904
SYMBOL res -1008 -112 R0
SYMATTR InstName R5
SYMATTR Value 390k
SYMBOL res -544 -112 R0
SYMATTR InstName R6
SYMATTR Value 390K
SYMBOL res -672 -288 R0
SYMATTR InstName R7
SYMATTR Value 1.1k
SYMBOL voltage -1376 96 R0
WINDOW 123 0 0 Left 2
WINDOW 39 0 0 Left 2
SYMATTR InstName V4
SYMATTR Value 12
SYMBOL voltage -1376 224 R0
WINDOW 123 0 0 Left 2
WINDOW 39 0 0 Left 2
SYMATTR InstName V5
SYMATTR Value 12
SYMBOL res -880 -64 R0
SYMATTR InstName R9
SYMATTR Value 1K
SYMBOL res -672 -64 R0
SYMATTR InstName R10
SYMATTR Value 1K
SYMBOL voltage -1376 416 M0
WINDOW 123 24 124 Left 2
WINDOW 39 0 0 Left 2
SYMATTR Value2 AC 1.2
SYMATTR InstName V6
SYMATTR Value SINE(0 1.2 3000)
SYMBOL voltage -1376 672 M180
WINDOW 123 24 68 Left 2
WINDOW 39 0 0 Left 2
SYMATTR Value2 AC -1.2
SYMATTR InstName V7
SYMATTR Value SINE(0 -1.2 3000)
SYMBOL res 176 -48 R0
SYMATTR InstName R8
SYMATTR Value 1k
SYMBOL cap -128 -112 R90
WINDOW 0 0 32 VBottom 2
WINDOW 3 32 32 VTop 2
SYMATTR InstName C1
SYMATTR Value 10µ
SYMBOL npn 688 -144 R0
SYMATTR InstName Q10
SYMATTR Value 2N3904
SYMBOL res 736 0 R0
SYMATTR InstName R11
SYMATTR Value 1k
SYMBOL res 528 -96 R0
SYMATTR InstName R12
SYMATTR Value 390k
SYMBOL cap 880 -48 R90
WINDOW 0 0 32 VBottom 2
WINDOW 3 32 32 VTop 2
SYMATTR InstName C3
SYMATTR Value 100µ
SYMBOL res 960 -48 R0
SYMATTR InstName R13
SYMATTR Value 1k
SYMBOL cap 512 -112 R90
WINDOW 0 0 32 VBottom 2
WINDOW 3 32 32 VTop 2
SYMATTR InstName C4
SYMATTR Value 100µ
SYMBOL cap 896 -32 R0
SYMATTR InstName C5
SYMATTR Value 47µ
SYMBOL npn 1440 -80 R0
SYMATTR InstName Q11
SYMATTR Value 2N3904
SYMBOL res 1360 -192 R180
WINDOW 0 36 76 Left 2
WINDOW 3 36 40 Left 2
SYMATTR InstName R14
SYMATTR Value 100
SYMBOL res 1360 80 R180
WINDOW 0 36 76 Left 2
WINDOW 3 36 40 Left 2
SYMATTR InstName R15
SYMATTR Value 1.8k
SYMBOL res 1520 -96 R180
WINDOW 0 36 76 Left 2
WINDOW 3 36 40 Left 2
SYMATTR InstName R16
SYMATTR Value 470
SYMBOL res 1520 144 R180
WINDOW 0 36 76 Left 2
WINDOW 3 36 40 Left 2
SYMATTR InstName R17
SYMATTR Value 120
SYMBOL res 1744 -96 R180
WINDOW 0 36 76 Left 2
WINDOW 3 36 40 Left 2
SYMATTR InstName R18
SYMATTR Value 1.5k
SYMBOL res 1744 16 R180
WINDOW 0 36 76 Left 2
WINDOW 3 36 40 Left 2
SYMATTR InstName R19
SYMATTR Value 390
SYMBOL res 1920 112 R180
WINDOW 0 36 76 Left 2
WINDOW 3 36 40 Left 2
SYMATTR InstName R20
SYMATTR Value 560
SYMBOL res 1920 -416 R180
WINDOW 0 36 76 Left 2
WINDOW 3 36 40 Left 2
SYMATTR InstName R21
SYMATTR Value 4.7K
SYMBOL res 2320 -192 R180
WINDOW 0 36 76 Left 2
WINDOW 3 36 40 Left 2
SYMATTR InstName R22
SYMATTR Value 1
SYMBOL res 2464 -80 R180
WINDOW 0 36 76 Left 2
WINDOW 3 36 40 Left 2
SYMATTR InstName R23
SYMATTR Value 8
SYMBOL res 2320 112 R180
WINDOW 0 36 76 Left 2
WINDOW 3 36 40 Left 2
SYMATTR InstName R24
SYMATTR Value 1
SYMBOL cap 1264 -48 R90
WINDOW 0 0 32 VBottom 2
WINDOW 3 32 32 VTop 2
SYMATTR InstName C6
SYMATTR Value 10µ
SYMBOL cap 1648 -112 R90
WINDOW 0 0 32 VBottom 2
WINDOW 3 32 32 VTop 2
SYMATTR InstName C7
SYMATTR Value 10µ
SYMBOL cap 1856 -240 R180
WINDOW 0 24 56 Left 2
WINDOW 3 24 8 Left 2
SYMATTR InstName C8
SYMATTR Value 220µ
SYMBOL npn 1840 -144 R0
SYMATTR InstName Q13
SYMATTR Value 2N3904
SYMBOL res 1360 -96 R180
WINDOW 0 36 76 Left 2
WINDOW 3 36 40 Left 2
SYMATTR InstName R25
SYMATTR Value 10k
SYMBOL res 1360 176 R180
WINDOW 0 36 76 Left 2
WINDOW 3 36 40 Left 2
SYMATTR InstName R26
SYMATTR Value 100
SYMBOL res 1520 -192 R180
WINDOW 0 36 76 Left 2
WINDOW 3 36 40 Left 2
SYMATTR InstName R27
SYMATTR Value 10
SYMBOL res 1744 -192 R180
WINDOW 0 36 76 Left 2
WINDOW 3 36 40 Left 2
SYMATTR InstName R28
SYMATTR Value 22k
SYMBOL res 1744 112 R180
WINDOW 0 36 76 Left 2
WINDOW 3 36 40 Left 2
SYMATTR InstName R29
SYMATTR Value 120
SYMBOL diode 1888 -400 R0
WINDOW 3 39 31 Left 2
SYMATTR InstName D1
SYMATTR Value 1N4148
SYMBOL diode 1888 -320 R0
WINDOW 3 40 30 Left 2
SYMATTR InstName D2
SYMATTR Value 1N4148
SYMBOL diode 1888 -240 R0
WINDOW 3 42 35 Left 2
SYMATTR InstName D3
SYMATTR Value 1N4148
SYMBOL npn 1440 704 R0
SYMATTR InstName Q12
SYMATTR Value 2N3904
SYMBOL res 1360 592 R180
WINDOW 0 36 76 Left 2
WINDOW 3 36 40 Left 2
SYMATTR InstName R30
SYMATTR Value 100
SYMBOL res 1360 864 R180
WINDOW 0 36 76 Left 2
WINDOW 3 36 40 Left 2
SYMATTR InstName R31
SYMATTR Value 1.8k
SYMBOL res 1520 688 R180
WINDOW 0 36 76 Left 2
WINDOW 3 36 40 Left 2
SYMATTR InstName R32
SYMATTR Value 470
SYMBOL res 1520 928 R180
WINDOW 0 36 76 Left 2
WINDOW 3 36 40 Left 2
SYMATTR InstName R33
SYMATTR Value 120
SYMBOL res 1744 688 R180
WINDOW 0 36 76 Left 2
WINDOW 3 36 40 Left 2
SYMATTR InstName R34
SYMATTR Value 1.5k
SYMBOL res 1744 800 R180
WINDOW 0 36 76 Left 2
WINDOW 3 36 40 Left 2
SYMATTR InstName R35
SYMATTR Value 390
SYMBOL res 1920 896 R180
WINDOW 0 36 76 Left 2
WINDOW 3 36 40 Left 2
SYMATTR InstName R36
SYMATTR Value 560
SYMBOL res 1920 368 R180
WINDOW 0 36 76 Left 2
WINDOW 3 36 40 Left 2
SYMATTR InstName R37
SYMATTR Value 4.7K
SYMBOL res 2320 592 R180
WINDOW 0 36 76 Left 2
WINDOW 3 36 40 Left 2
SYMATTR InstName R38
SYMATTR Value 1
SYMBOL res 2464 704 R180
WINDOW 0 36 76 Left 2
WINDOW 3 36 40 Left 2
SYMATTR InstName R39
SYMATTR Value 8
SYMBOL res 2320 896 R180
WINDOW 0 36 76 Left 2
WINDOW 3 36 40 Left 2
SYMATTR InstName R40
SYMATTR Value 1
SYMBOL cap 1264 736 R90
WINDOW 0 0 32 VBottom 2
WINDOW 3 32 32 VTop 2
SYMATTR InstName C9
SYMATTR Value 10µ
SYMBOL cap 1648 672 R90
WINDOW 0 0 32 VBottom 2
WINDOW 3 32 32 VTop 2
SYMATTR InstName C10
SYMATTR Value 10µ
SYMBOL cap 1856 544 R180
WINDOW 0 24 56 Left 2
WINDOW 3 24 8 Left 2
SYMATTR InstName C11
SYMATTR Value 220µ
SYMBOL npn 1840 640 R0
SYMATTR InstName Q14
SYMATTR Value 2N3904
SYMBOL res 1360 688 R180
WINDOW 0 36 76 Left 2
WINDOW 3 36 40 Left 2
SYMATTR InstName R41
SYMATTR Value 10k
SYMBOL res 1360 960 R180
WINDOW 0 36 76 Left 2
WINDOW 3 36 40 Left 2
SYMATTR InstName R42
SYMATTR Value 100
SYMBOL res 1520 592 R180
WINDOW 0 36 76 Left 2
WINDOW 3 36 40 Left 2
SYMATTR InstName R43
SYMATTR Value 10
SYMBOL res 1744 592 R180
WINDOW 0 36 76 Left 2
WINDOW 3 36 40 Left 2
SYMATTR InstName R44
SYMATTR Value 22k
SYMBOL res 1744 896 R180
WINDOW 0 36 76 Left 2
WINDOW 3 36 40 Left 2
SYMATTR InstName R45
SYMATTR Value 120
SYMBOL diode 1888 384 R0
WINDOW 3 39 31 Left 2
SYMATTR InstName D4
SYMATTR Value 1N4148
SYMBOL diode 1888 464 R0
WINDOW 3 40 30 Left 2
SYMATTR InstName D5
SYMATTR Value 1N4148
SYMBOL diode 1888 544 R0
WINDOW 3 42 35 Left 2
SYMATTR InstName D6
SYMATTR Value 1N4148
TEXT -1568 768 Left 2 !.ac dec 10 1 40k
